Circuit: * C:\Users\Omkar\Dropbox\SMPS_Design_Project\ver1.3\circuit_ver1.3.asc

Limiting rise time of source v4 to 0.001
Limiting fall time of source v4 to 0.001
Limiting rise time of source v2 to 0.001
Limiting fall time of source v2 to 0.001
Direct Newton iteration for .op point succeeded.

Date: Sat Oct 12 23:34:34 2013
Total elapsed time: 0.091 seconds.

tnom = 27
temp = 27
method = modified trap
totiter = 1401
traniter = 1388
tranpoints = 533
accept = 391
rejected = 142
matrix size = 19
fillins = 5
solver = Normal
Matrix Compiler1: 906 bytes object code size  0.7/0.4/[0.1]
Matrix Compiler2: off  [0.3]/0.4/0.3


