Circuit: * C:\Users\manojg\Dropbox\SMPS_Design_Project\ver3.0\High_pass_filter_Electrisense.asc


Date: Mon Dec 02 14:02:07 2013
Total elapsed time: 0.013 seconds.

tnom = 27
temp = 27
method = trap
totiter = 0
traniter = 0
tranpoints = 0
accept = 0
rejected = 0
matrix size = 3
fillins = 0
solver = Normal

