Circuit: * C:\Users\AashishSharma\Dropbox\SMPS_Design_Project (1)\ver3.0\High_pass_filter.asc

.OP point found by inspection.

Date: Tue Dec 03 22:27:38 2013
Total elapsed time: 0.174 seconds.

tnom = 27
temp = 27
method = modified trap
totiter = 198
traniter = 198
tranpoints = 100
accept = 76
rejected = 24
matrix size = 3
fillins = 0
solver = Normal
Matrix Compiler1:       5 opcodes  1.9/[1.7]/2.0
Matrix Compiler2: 163 bytes object code size  1.8/1.8/[1.7]


