Circuit: * Z:\Home\Dropbox\SMPS_Design_Project\ver1.1\circuit_ver1.1.asc

Limiting rise time of source v2 to 0.001
Limiting fall time of source v2 to 0.001
.OP point found by inspection.

Date: Mon Oct 21 15:25:06 2013
Total elapsed time: 0.750 seconds.

tnom = 27
temp = 27
method = modified trap
totiter = 2651
traniter = 2651
tranpoints = 974
accept = 691
rejected = 283
matrix size = 12
fillins = 5
solver = Normal
Matrix Compiler1: 700 bytes object code size  1.2/1.2/[0.9]
Matrix Compiler2: 934 bytes object code size  1.0/1.3/[1.0]


