Circuit: * C:\Users\Omkar\Dropbox\SMPS_Design_Project\ver2.0\circuit_ver2.2.asc

