Circuit: * C:\Users\AashishSharma\Dropbox\SMPS_Design_Project (1)\Op-Amp_linear_voltage_regulator\Op-Amp_linear_voltage_regulator (1).asc

Direct Newton iteration failed to find .op point.  (Use ".option noopiter" to skip.)
Starting Gmin stepping
Gmin = 10
Gmin = 1.07374
Gmin = 0.115292
Gmin = 0.0123794
Gmin = 0.00132923
Gmin = 0.000142725
Gmin = 1.5325e-005
Gmin = 1.6455e-006
Gmin = 1.76685e-007
Gmin = 1.89714e-008
Gmin = 2.03704e-009
Gmin = 2.18725e-010
Gmin = 2.34854e-011
Gmin = 2.52173e-012
Gmin = 2.70769e-013
Gmin = 0
Gmin stepping succeeded in finding the operating point.


Date: Fri Nov 15 23:42:16 2013
Total elapsed time: 0.906 seconds.

tnom = 27
temp = 27
method = modified trap
totiter = 1357
traniter = 944
tranpoints = 473
accept = 396
rejected = 77
matrix size = 18
fillins = 9
solver = Normal
Matrix Compiler1: 1.31 KB object code size  2.6/2.1/[1.8]
Matrix Compiler2: off  [2.4]/2.8/2.8


