Circuit: * C:\Users\manojg\Dropbox\SMPS_Design_Project\ver1.6\circuit_ver1.5.4.asc

Limiting rise time of source v2 to 0.001
Limiting fall time of source v2 to 0.001
Direct Newton iteration for .op point succeeded.
Heightened Def Con from 1.00612e-012 to 3.96982e-010

Date: Tue Nov 05 14:01:31 2013
Total elapsed time: 0.756 seconds.

tnom = 27
temp = 27
method = modified trap
totiter = 52466
traniter = 52430
tranpoints = 13858
accept = 10086
rejected = 3773
matrix size = 37
fillins = 5
solver = Normal
Matrix Compiler1: 1.60 KB object code size  0.9/0.6/[0.3]
Matrix Compiler2: off  [0.5]/1.2/1.0


