Circuit: * C:\Users\manojg\Dropbox\SMPS_Design_Project\ver1.6\circuit_ver1.5.2.asc

Limiting rise time of source v2 to 0.001
Limiting fall time of source v2 to 0.001
Direct Newton iteration for .op point succeeded.

Date: Sat Oct 26 18:14:38 2013
Total elapsed time: 0.083 seconds.

tnom = 27
temp = 27
method = modified trap
totiter = 2047
traniter = 2034
tranpoints = 990
accept = 829
rejected = 161
matrix size = 19
fillins = 5
solver = Normal
Matrix Compiler1: 924 bytes object code size  0.5/0.3/[0.2]
Matrix Compiler2: 1.29 KB object code size  0.4/0.6/[0.4]


