Circuit: * C:\Users\manojg\Dropbox\SMPS_Design_Project\ver1.6\circuit_ver1.5.3_Ned_mohan.asc

Limiting rise time of source v2 to 0.001
Limiting fall time of source v2 to 0.001
Direct Newton iteration for .op point succeeded.

Date: Sat Oct 26 18:02:43 2013
Total elapsed time: 0.091 seconds.

tnom = 27
temp = 27
method = modified trap
totiter = 2058
traniter = 2045
tranpoints = 997
accept = 829
rejected = 168
matrix size = 19
fillins = 5
solver = Normal
Matrix Compiler1: 924 bytes object code size  0.7/0.3/[0.2]
Matrix Compiler2: off  [0.3]/0.6/0.5


