Circuit: * C:\Users\Omkar\Dropbox\SMPS_Design_Project\ver1.4\circuit_ver1.4.asc

Limiting rise time of source v2 to 0.001
Limiting fall time of source v2 to 0.001
Direct Newton iteration for .op point succeeded.

Date: Mon Oct 14 10:55:39 2013
Total elapsed time: 0.105 seconds.

tnom = 27
temp = 27
method = modified trap
totiter = 2075
traniter = 2062
tranpoints = 1016
accept = 813
rejected = 203
matrix size = 19
fillins = 5
solver = Normal
Matrix Compiler1: 906 bytes object code size  0.7/0.4/[0.2]
Matrix Compiler2: off  [0.3]/0.4/0.4


