Circuit: * C:\Users\Omkar\Dropbox\SMPS_Design_Project\ver1.4\circuit_ver1.5.asc

Limiting rise time of source v2 to 0.001
Limiting fall time of source v2 to 0.001
Direct Newton iteration for .op point succeeded.

Date: Sun Oct 13 15:36:13 2013
Total elapsed time: 0.125 seconds.

tnom = 27
temp = 27
method = modified trap
totiter = 2089
traniter = 2076
tranpoints = 1020
accept = 828
rejected = 192
matrix size = 19
fillins = 5
solver = Normal
Matrix Compiler1: 906 bytes object code size  0.7/0.5/[0.2]
Matrix Compiler2: 1.29 KB object code size  0.4/0.7/[0.4]


