Circuit: * C:\Users\Omkar\Dropbox\SMPS_Design_Project\ver1.7\circuit_ver2.2.asc

