Circuit: * C:\Users\manojg\Dropbox\SMPS_Design_Project\ver1.7\circuit_ver2.3.asc

Error on line 30 : s1 vd vinput vinput 0 sw sw
	 Unknown parameter "sw"
Limiting fall time of source v9 to 5.0822e-021
Limiting rise time of source v2 to 0.001
Limiting fall time of source v2 to 0.001
Direct Newton iteration for .op point succeeded.
Heightened Def Con from 1.00035e-012 to 3.96999e-010
Heightened Def Con from 0.00094252 to 0.00094252
Heightened Def Con from 0.00121352 to 0.00121352

Date: Sat Nov 16 14:05:55 2013
Total elapsed time: 28.017 seconds.

tnom = 27
temp = 27
method = modified trap
totiter = 1254568
traniter = 1254560
tranpoints = 351494
accept = 258697
rejected = 92800
matrix size = 41
fillins = 5
solver = Normal
Matrix Compiler1: 1.69 KB object code size  0.9/0.7/[0.4]
Matrix Compiler2: off  [0.5]/1.3/0.6


