Circuit: * C:\Users\manojg\Dropbox\SMPS_Design_Project\ver1.7\circuit_ver1.7.3.asc

Error on line 30 : s1 vd vinput vinput 0 sw
	 Unable to find definition of model "sw"
Limiting rise time of source v2 to 0.001
Limiting fall time of source v2 to 0.001
Direct Newton iteration for .op point succeeded.
Heightened Def Con from 1.00035e-012 to 3.96999e-010
Heightened Def Con from 0.00108952 to 0.00108952
Heightened Def Con from 0.00108952 to 0.00108952
Heightened Def Con from 0.00124352 to 0.00124352

Date: Fri Nov 08 23:16:59 2013
Total elapsed time: 21.753 seconds.

tnom = 27
temp = 27
method = modified trap
totiter = 1343768
traniter = 1343760
tranpoints = 376578
accept = 277268
rejected = 99314
matrix size = 39
fillins = 5
solver = Normal
Matrix Compiler1: 1.66 KB object code size  0.8/0.7/[0.3]
Matrix Compiler2: 2.73 KB object code size  0.6/1.1/[0.4]


