Circuit: * C:\Users\Omkar\Dropbox\SMPS_Design_Project\ver1.7\circuit_ver2.1.asc

Error on line 30 : s1 vd vinput vinput 0 sw
	 Unable to find definition of model "sw"
Limiting rise time of source v2 to 0.001
Limiting fall time of source v2 to 0.001
Direct Newton iteration for .op point succeeded.
.step r=5
Heightened Def Con from 1.00035e-012 to 3.96999e-010
.step r=10
.step r=15
.step r=20

Date: Sat Nov 09 15:31:52 2013
Total elapsed time: 116.528 seconds.

tnom = 27
temp = 27
method = modified trap
totiter = 1329699
traniter = 1329686
tranpoints = 372533
accept = 274585
rejected = 97949
matrix size = 39
fillins = 5
solver = Normal
Matrix Compiler1: 1.66 KB object code size  1.4/0.9/[0.4]
Matrix Compiler2: off  [0.6]/1.5/0.9


