Circuit: * C:\Users\manojg\Dropbox\SMPS_Design_Project\ver1.7\circuit_ver1.7.1.asc

Limiting rise time of source v2 to 0.001
Limiting fall time of source v2 to 0.001
Direct Newton iteration for .op point succeeded.
Heightened Def Con from 1.04157e-012 to 3.96875e-010

Date: Tue Nov 05 15:47:46 2013
Total elapsed time: 0.765 seconds.

tnom = 27
temp = 27
method = modified trap
totiter = 53499
traniter = 53463
tranpoints = 14227
accept = 10379
rejected = 3849
matrix size = 37
fillins = 5
solver = Normal
Matrix Compiler1: 1.60 KB object code size  0.9/0.6/[0.3]
Matrix Compiler2: off  [0.5]/1.2/0.9


