Circuit: * C:\Users\manoj\Dropbox\SMPS_Design_Project\ver1.7\circuit_ver3.1.asc

Error on line 30 : s1 vd vinput vinput 0 sw sw
	 Unknown parameter "sw"
Limiting fall time of source v9 to 5.0822e-021
Limiting rise time of source v2 to 0.001
Limiting fall time of source v2 to 0.001
Direct Newton iteration for .op point succeeded.
Heightened Def Con from 1.00035e-012 to 3.96999e-010

Date: Tue Jun 17 23:53:57 2014
Total elapsed time: 89.801 seconds.

tnom = 27
temp = 27
method = modified trap
totiter = 1343755
traniter = 1343747
tranpoints = 376702
accept = 277325
rejected = 99378
matrix size = 42
fillins = 5
solver = Normal
Matrix Compiler1: 1.74 KB object code size  4.5/2.5/[1.5]
Matrix Compiler2: 2.90 KB object code size  2.1/3.4/[1.3]


