Circuit: * C:\Users\manojg\Dropbox\SMPS_Design_Project\ver1.7\circuit_ver1.7.2.asc

Limiting rise time of source v2 to 0.001
Limiting fall time of source v2 to 0.001
Direct Newton iteration for .op point succeeded.

Date: Fri Nov 08 10:09:05 2013
Total elapsed time: 0.889 seconds.

tnom = 27
temp = 27
method = modified trap
totiter = 64091
traniter = 64083
tranpoints = 17143
accept = 12819
rejected = 4324
matrix size = 38
fillins = 5
solver = Normal
Matrix Compiler1: 1.63 KB object code size  0.9/0.6/[0.3]
Matrix Compiler2: off  [0.5]/1.1/0.5


