Circuit: * C:\Users\manoj\Dropbox\SMPS_Design_Project\ver1.7\Draft1.asc

.OP point found by inspection.

Date: Wed Jun 18 00:10:19 2014
Total elapsed time: 3.582 seconds.

tnom = 27
temp = 27
method = modified trap
totiter = 570056
traniter = 570056
tranpoints = 285029
accept = 220024
rejected = 65005
matrix size = 2
fillins = 0
solver = Normal
Matrix Compiler1: 36 bytes object code size  0.2/0.1/[0.1]
Matrix Compiler2: 96 bytes object code size  0.2/0.1/[0.1]


