Circuit: * C:\Users\Omkar\Dropbox\SMPS_Design_Project\ver1.7\Draft2.asc

Limiting fall time of source v1 to 5.20417e-019
WARNING: Less than two connections to node NC_01.  This node is used by V3.
Direct Newton iteration for .op point succeeded.
Heightened Def Con from 0.0025 +++++++++++++++++++to 0.0025
Heightened Def Con from 0.005 +++++++++++++++++++to 0.005
Heightened Def Con from 0.0075 +++++++++++++++++++to 0.0075

Date: Mon Nov 11 14:23:11 2013
Total elapsed time: 10.646 seconds.

tnom = 27
temp = 27
method = modified trap
totiter = 207389
traniter = 207362
tranpoints = 100771
accept = 100193
rejected = 638
matrix size = 38
fillins = 26
solver = Normal
Matrix Compiler1: 2.65 KB object code size  5.1/2.4/[0.7]
Matrix Compiler2: 3.38 KB object code size  2.7/2.8/[2.2]


