Circuit: * C:\Users\Omkar\Dropbox\SMPS_Design_Project\ver1.7\Draft2_LTC6409.asc

Early termination of direct N-R iteration.
Direct Newton iteration failed to find .op point.  (Use ".option noopiter" to skip.)
Starting Gmin stepping
Gmin = 10
Gmin = 1.07374
Gmin = 0.115292
Gmin = 0.0123794
Gmin = 0.00132923
Gmin = 0.000142725
Gmin = 1.5325e-005
Gmin = 1.6455e-006
Gmin = 1.76685e-007
Gmin = 1.89714e-008
Gmin = 2.03704e-009
Gmin = 2.18725e-010
Gmin = 2.34854e-011
Gmin = 2.52173e-012
Gmin = 2.70769e-013
Gmin = 0
Gmin stepping succeeded in finding the operating point.


Date: Tue Nov 12 17:48:27 2013
Total elapsed time: 0.127 seconds.

tnom = 27
temp = 27
method = modified trap
totiter = 2022
traniter = 1653
tranpoints = 405
accept = 302
rejected = 103
matrix size = 23
fillins = 38
solver = Normal
Matrix Compiler1: 3.21 KB object code size  2.5/1.4/[0.5]
Matrix Compiler2: 2.66 KB object code size  1.1/0.8/[0.7]


