Circuit: * C:\Users\manojg\Dropbox\SMPS_Design_Project\Rohan_Design_Buck_convertor\buck converter.asc

Direct Newton iteration for .op point succeeded.
Heightened Def Con from 1e-009 to 4e-009

Date: Tue Nov 05 12:36:38 2013
Total elapsed time: 0.228 seconds.

tnom = 27
temp = 27
method = modified trap
totiter = 11703
traniter = 11697
tranpoints = 3415
accept = 2789
rejected = 627
matrix size = 9
fillins = 0
solver = Normal
Matrix Compiler1: 350 bytes object code size  0.2/0.1/[0.1]
Matrix Compiler2: 661 bytes object code size  0.2/0.2/[0.1]


