Circuit: * Z:\Home\Dropbox\SMPS_Design_Project\ver1.2\circuit_ver1.1.asc

Limiting rise time of source v2 to 0.001
Limiting fall time of source v2 to 0.001
Direct Newton iteration for .op point succeeded.

Date: Mon Oct 21 15:26:46 2013
Total elapsed time: 0.360 seconds.

tnom = 27
temp = 27
method = modified trap
totiter = 1449
traniter = 1436
tranpoints = 570
accept = 420
rejected = 150
matrix size = 15
fillins = 5
solver = Normal
Matrix Compiler1: 814 bytes object code size  1.4/1.3/[1.1]
Matrix Compiler2: 1.10 KB object code size  1.1/1.4/[1.1]


