Circuit: * C:\Users\manojg\Dropbox\SMPS_Design_Project\ver1.5\circuit_ver1.5.asc

Limiting rise time of source v2 to 0.001
Limiting fall time of source v2 to 0.001
Direct Newton iteration for .op point succeeded.

Date: Sat Oct 26 13:39:09 2013
Total elapsed time: 0.078 seconds.

tnom = 27
temp = 27
method = modified trap
totiter = 1975
traniter = 1962
tranpoints = 969
accept = 776
rejected = 193
matrix size = 19
fillins = 5
solver = Normal
Matrix Compiler1: 906 bytes object code size  0.3/0.3/[0.1]
Matrix Compiler2: off  [0.3]/0.5/0.3


